@<TRIPOS>MOLECULE
C8X
 45 47 0 0 0
SMALL
GASTEIGER

@<TRIPOS>ATOM
      1 N          26.0790   33.6200   17.0170 N.am    1  C8X1        0.0000
      2 CA         27.0200   33.0650   17.9720 C.3     1  C8X1        0.0000
      3 C          26.5010   33.2390   19.4080 C.2     1  C8X1        0.0000
      4 O          26.5600   32.3250   20.2230 O.2     1  C8X1        0.0000
      5 CB         28.3690   33.7560   17.8280 C.3     1  C8X1        0.0000
      6 SG         29.4960   33.1710   19.1470 S.3     1  C8X1        0.0000
      7 N2         29.6020   37.0330   21.1300 N.pl3   1  C8X1        0.0000
      8 C3         30.8570   34.3870   18.8350 C.3     1  C8X1        0.0000
      9 N3         28.8560   39.0880   22.3920 N.pl3   1  C8X1        0.0000
     10 C4         30.4930   35.7340   19.3470 C.2     1  C8X1        0.0000
     11 C5         30.6350   36.8990   18.5930 C.2     1  C8X1        0.0000
     12 C6         30.2520   38.1240   19.1210 C.2     1  C8X1        0.0000
     13 C7         29.7280   38.1780   20.4070 C.2     1  C8X1        0.0000
     14 C8         29.9590   35.8590   20.6340 C.2     1  C8X1        0.0000
     15 C9         29.2700   39.3630   21.1280 C.2     1  C8X1        0.0000
     16 C10        29.2170   40.6670   20.6480 C.2     1  C8X1        0.0000
     17 C11        28.7310   41.6700   21.4760 C.2     1  C8X1        0.0000
     18 C12        28.3140   41.3620   22.7650 C.2     1  C8X1        0.0000
     19 C13        28.3920   40.0440   23.1920 C.2     1  C8X1        0.0000
     20 H          26.4560   34.0660   16.1930 H       1  C8X1        0.0000
     21 HA         27.1180   31.9830   17.8250 H       1  C8X1        0.0000
     22 HB2        28.2560   34.8290   17.9390 H       1  C8X1        0.0000
     23 HB3        28.8200   33.5110   16.8700 H       1  C8X1        0.0000
     24 H7         31.0880   34.3930   17.7770 H       1  C8X1        0.0000
     25 H8         31.7050   33.9850   19.3820 H       1  C8X1        0.0000
     26 H9         31.0390   36.8460   17.5990 H       1  C8X1        0.0000
     27 H10        30.3590   39.0200   18.5400 H       1  C8X1        0.0000
     28 H11        29.8140   34.9660   21.2410 H       1  C8X1        0.0000
     29 H12        29.5430   40.8930   19.6510 H       1  C8X1        0.0000
     30 H13        28.6760   42.6820   21.1200 H       1  C8X1        0.0000
     31 H14        27.9370   42.1210   23.4230 H       1  C8X1        0.0000
     32 H15        28.0930   39.7530   24.1980 H       1  C8X1        0.0000
     33 Fe         28.9170   37.2290   22.9190 Fe      1  C8X1        0.0000
     34 CN         25.5030   34.7760   21.0040 C.3     2  NME2        0.0000
     35 NN         26.1110   34.4790   19.7230 N.am    2  NME2        0.0000
     36 HNN1       25.9800   35.1500   18.9810 H       2  NME2        0.0000
     37 HCN1       24.8900   33.9310   21.3220 H       2  NME2        0.0000
     38 HCN2       26.2800   34.9180   21.7580 H       2  NME2        0.0000
     39 HCN3       24.8850   35.6630   20.9200 H       2  NME2        0.0000
     40 CC1        24.7690   33.2990   17.0570 C.2     3  ACE3        0.0000
     41 OC         24.3060   32.6570   17.9950 O.2     3  ACE3        0.0000
     42 CC2        23.9290   33.8240   15.9260 C.3     3  ACE3        0.0000
     43 HC1        23.4660   32.9790   15.4200 H       3  ACE3        0.0000
     44 HC2        23.1250   34.4300   16.3350 H       3  ACE3        0.0000
     45 HC3        24.5080   34.4030   15.2150 H       3  ACE3        0.0000
@<TRIPOS>BOND
     1    45    42    1
     2    43    42    1
     3    42    44    1
     4    42    40    1
     5    20     1    1
     6    23     5    1
     7     1    40   am
     8     1     2    1
     9    40    41    2
    10    26    11    1
    11    24     8    1
    12    21     2    1
    13     5    22    1
    14     5     2    1
    15     5     6    1
    16     2     3    1
    17    27    12    1
    18    11    12    2
    19    11    10    1
    20     8     6    1
    21     8    10    1
    22     8    25    1
    23    36    35    1
    24    12    13    1
    25    10    14    2
    26     3    35   am
    27     3     4    2
    28    29    16    1
    29    35    34    1
    30    13    15    2
    31    13     7    1
    32    14     7    1
    33    14    28    1
    34    16    15    1
    35    16    17    2
    36    39    34    1
    37    34    37    1
    38    34    38    1
    39    30    17    1
    40    15     9    1
    41     7    33    1
    42    17    18    1
    43     9    33    1
    44     9    19    1
    45    18    19    2
    46    18    31    1
    47    19    32    1
