@<TRIPOS>MOLECULE
PCY
 47 48 0 0 0
SMALL
GASTEIGER

@<TRIPOS>ATOM
      1 HT1         0.5430   -2.0300   -1.3820 H       1  PCY1        0.0748
      2 HK         -1.3980   -3.3550    1.2240 H       1  PCY1        0.0622
      3 HE1        -2.4030   -0.1040    1.4100 H       1  PCY1        0.0654
      4 HB1        -0.7660    4.4510    1.6170 H       1  PCY1        0.0376
      5 HT2         1.3730   -1.8080    0.1650 H       1  PCY1        0.0748
      6 HD1        -2.4900    2.3570    1.5940 H       1  PCY1        0.0622
      7 HE2         1.1550    0.2100   -0.9370 H       1  PCY1        0.0654
      8 HB2         0.1070    4.6060    0.0870 H       1  PCY1        0.0376
      9 HM         -0.1550   -7.4250    0.8010 H       1  PCY1        0.0618
     10 HD2         1.0650    2.6350   -0.7510 H       1  PCY1        0.0622
     11 HL2         1.7070   -6.6730   -0.6530 H       1  PCY1        0.0640
     12 H          -2.2660    3.1300   -1.2610 H       1  PCY1        0.1547
     13 HL1        -1.7030   -5.7380    1.7530 H       1  PCY1        0.0618
     14 N          -2.5400    4.1030   -1.1470 N.am    1  PCY1       -0.2847
     15 CA         -2.0000    4.7560   -0.0850 C.2     1  PCY1        0.0769
     16 C          -2.7230    5.8890    0.4900 C.2     1  PCY1        0.2542
     17 CB         -0.7820    4.1750    0.5600 C.3     1  PCY1        0.0158
     18 O          -3.9560    5.9880    0.4080 O.2     1  PCY1       -0.2692
     19 CG         -0.7150    2.6710    0.4370 C.ar    1  PCY1       -0.0415
     20 CD1        -1.6920    1.8840    1.0420 C.ar    1  PCY1       -0.0548
     21 CE1        -1.6490    0.5090    0.9440 C.ar    1  PCY1       -0.0197
     22 CZ         -0.6170   -0.1150    0.2410 C.ar    1  PCY1        0.1210
     23 CE2         0.3570    0.6650   -0.3730 C.ar    1  PCY1       -0.0197
     24 CD2         0.3000    2.0450   -0.2690 C.ar    1  PCY1       -0.0548
     25 OH         -0.6720   -1.4780    0.1980 O.3     1  PCY1       -0.4873
     26 CT          0.4480   -2.1810   -0.2970 C.3     1  PCY1        0.1167
     27 CI          0.3100   -3.6470    0.0030 C.ar    1  PCY1        0.0198
     28 CK1        -0.7200   -4.0890    0.8220 C.ar    1  PCY1       -0.0532
     29 CL1        -0.8920   -5.4310    1.1130 C.ar    1  PCY1       -0.0613
     30 CM         -0.0260   -6.3780    0.5810 C.ar    1  PCY1       -0.0596
     31 CL2         1.0090   -5.9680   -0.2280 C.ar    1  PCY1       -0.0311
     32 CK2         1.1910   -4.6110   -0.5180 C.ar    1  PCY1        0.1326
     33 NO          2.2890   -4.2720   -1.3370 N.pl3   1  PCY1        0.0568
     34 ON1         2.9150   -5.1770   -1.8980 O.2     1  PCY1       -0.1261
     35 ON2         2.5960   -3.0850   -1.4890 O.2     1  PCY1       -0.1261
     36 CN         -2.5600    7.9330    1.8200 C.3     2  NME2        0.0004
     37 NN         -1.9720    6.7880    1.1650 N.am    2  NME2       -0.3136
     38 HNN1       -0.9690    6.7140    1.1640 H       2  NME2        0.1487
     39 HCN1       -3.4870    8.1890    1.3070 H       2  NME2        0.0426
     40 HCN2       -2.7980    7.7010    2.8610 H       2  NME2        0.0426
     41 HCN3       -1.8720    8.7720    1.7800 H       2  NME2        0.0426
     42 CC1        -3.3080    4.6780   -2.1430 C.2     3  ACE3        0.2140
     43 OC         -3.3720    5.8890   -2.2860 O.2     3  ACE3       -0.2758
     44 CC2        -3.9740    3.6900   -3.0530 C.3     3  ACE3        0.0125
     45 HC1        -5.0460    3.8720   -3.0240 H       3  ACE3        0.0323
     46 HC2        -3.6440    3.8680   -4.0740 H       3  ACE3        0.0323
     47 HC3        -3.7690    2.6650   -2.7660 H       3  ACE3        0.0323
@<TRIPOS>BOND
     1    46    44    1
     2    44    45    1
     3    44    47    1
     4    44    42    1
     5    43    42    2
     6    42    14   am
     7    34    33    2
     8    35    33    2
     9     1    26    1
    10    33    32    1
    11    12    14    1
    12    14    15    2
    13     7    23    1
    14    10    24    1
    15    11    31    1
    16    32    31   ar
    17    32    27   ar
    18    23    24   ar
    19    23    22   ar
    20    26    27    1
    21    26     5    1
    22    26    25    1
    23    24    19   ar
    24    31    30   ar
    25    15    16    1
    26    15    17    1
    27    27    28   ar
    28     8    17    1
    29    25    22    1
    30    22    21   ar
    31    18    16    2
    32    19    17    1
    33    19    20   ar
    34    16    37   am
    35    17     4    1
    36    30     9    1
    37    30    29   ar
    38    28    29   ar
    39    28     2    1
    40    21    20   ar
    41    21     3    1
    42    20     6    1
    43    29    13    1
    44    38    37    1
    45    37    36    1
    46    39    36    1
    47    41    36    1
    48    36    40    1
