@<TRIPOS>MOLECULE
MOL
29 29 1 0 1
SMALL
USER_CHARGES
@<TRIPOS>ATOM
       1 O            3.0620    -0.7800     1.4010 O             1 MOL       -0.624100
       2 N            1.5070    -2.3650    -0.0330 N             1 MOL       -0.556900
       3 CA           1.4660    -0.9690    -0.3930 CT            1 MOL        0.086000
       4 CB           0.0950    -0.3680    -0.1720 ca            1 MOL       -0.111300
       5 CG1         -0.5070    -0.4680     1.0770 ca            1 MOL       -0.111500
       6 CG2         -0.5700     0.2900    -1.1970 ca            1 MOL       -0.111500
       7 C            2.4780    -0.2280     0.4900 C             1 MOL        0.641100
       8 CD1         -1.7570     0.0810     1.2950 ca            1 MOL       -0.132500
       9 CD2         -1.8210     0.8400    -0.9770 ca            1 MOL       -0.132500
      10 CE          -2.4160     0.7380     0.2690 ca            1 MOL       -0.120000
      11 HA           1.7410    -0.8730    -1.4510 H1            1 MOL        0.104700
      12 HG1          0.0090    -0.9800     1.8760 ha            1 MOL        0.145000
      13 HG2         -0.1160     0.3550    -2.1760 ha            1 MOL        0.145000
      14 HD1         -2.2180    -0.0030     2.2680 ha            1 MOL        0.134500
      15 HD2         -2.3350     1.3440    -1.7820 ha            1 MOL        0.134500
      16 HN           1.9790    -2.5650     0.8400 H             1 MOL        0.325500
      17 HE          -3.3930     1.1660     0.4390 ha            1 MOL        0.133000
      18 CN           3.4830     1.9640     0.9110 CT            1 MOL        0.077300
      19 NN           2.6290     1.0680     0.1690 N             1 MOL       -0.561900
      20 HNN1         2.0710     1.4560    -0.5750 H             1 MOL        0.315500
      21 HCN1         3.9870     1.3760     1.6760 H1            1 MOL        0.046033
      22 HCN2         4.2260     2.4160     0.2530 H1            1 MOL        0.046033
      23 HCN3         2.8960     2.7520     1.3870 H1            1 MOL        0.046033
      24 CC1          1.1810    -3.3440    -0.9070 C             1 MOL        0.663100
      25 OC           0.7520    -3.1080    -2.0160 O             1 MOL       -0.614100
      26 CC2          1.3880    -4.7380    -0.3550 CT            1 MOL       -0.173100
      27 HC1          1.0940    -5.4680    -1.1040 H1            1 MOL        0.068700
      28 HC2          2.4340    -4.8850    -0.0970 H1            1 MOL        0.068700
      29 HC3          0.7850    -4.8760     0.5390 H1            1 MOL        0.068700
@<TRIPOS>BOND
       1        1        7 2
       2        2        3 1
       3        2       16 1
       4        2       24 1
       5        3        4 1
       6        3        7 1
       7        3       11 1
       8        4        5 ar
       9        4        6 ar
      10        5        8 ar
      11        5       12 1
      12        6        9 ar
      13        6       13 1
      14        7       19 1
      15        8       10 ar
      16        8       14 1
      17        9       10 ar
      18        9       15 1
      19       10       17 1
      20       18       19 1
      21       18       21 1
      22       18       22 1
      23       18       23 1
      24       19       20 1
      25       24       25 2
      26       24       26 1
      27       26       27 1
      28       26       28 1
      29       26       29 1
@<TRIPOS>SUBSTRUCTURE
       1 MOL             1 RESIDUE    0 **** ROOT      0
